/*--------------------------------*- C++ -*----------------------------------*\
| =========                 |                                                 |
| \\      /  F ield         | OpenFOAM: The Open Source CFD Toolbox           |
|  \\    /   O peration     | Version:  1.6                                   |
|   \\  /    A nd           | Web:      www.OpenFOAM.org                      |
|    \\/     M anipulation  |                                                 |
\*---------------------------------------------------------------------------*/
FoamFile
{
    version     2.0;
    format      ascii;
    class       volScalarField;
    location    "0.01";
    object      epsilon;
}
// * * * * * * * * * * * * * * * * * * * * * * * * * * * * * * * * * * * * * //

dimensions      [0 2 -3 0 0 0 0];

internalField   uniform 14.855;

boundaryField
{

    //- Set patchGroups for constraint patches
    #includeEtc "caseDicts/setConstraintTypes"

    inlet
    {
        type            fixedValue;
        value           uniform 14.855;
    }
    
    outlet
    {
        type            zeroGradient;

        //type            inletOutlet;
        //inletValue      uniform 0.003;
        //value           uniform 0.003;
    }
    
    wall
    {
        type            epsilonWallFunction;
        value           uniform 14.855;
    }
}

// ************************************************************************* //
