/*--------------------------------*- C++ -*----------------------------------*\
| =========                 |                                                 |
| \\      /  F ield         | OpenFOAM: The Open Source CFD Toolbox           |
|  \\    /   O peration     | Version:  1.6                                   |
|   \\  /    A nd           | Web:      www.OpenFOAM.org                      |
|    \\/     M anipulation  |                                                 |
\*---------------------------------------------------------------------------*/
FoamFile
{
    version     2.0;
    format      ascii;
    class       dictionary;
    location    "system";
    object      controlDict;
}
// * * * * * * * * * * * * * * * * * * * * * * * * * * * * * * * * * * * * * //

application     cfdemSolverPiso;

startFrom       startTime;

startTime       0.0;

stopAt          endTime;

endTime         0.002; // 0.5 (test parameter)

deltaT          2e-5; // large dt = 1e-4; small dt = 1e-6

writeControl    runTime;

writeInterval   0.001; //0.001 (test parameter)

purgeWrite      0;

writeFormat     ascii;

writePrecision  6;

writeCompression uncompressed;

timeFormat      general;

timePrecision   6;

runTimeModifiable yes;

adjustTimeStep  no;

//maxCo 0.1;

// NOTE: MachNo function can only be used with compressible gas!
/*functions
{
    libs            ("libfieldFunctionObjects.so");

    Ma
    {
        type            MachNo;
        executeControl  writeTime;
        writeControl    writeTime;
    }
}
*/


// ************************************************************************* //
