/*--------------------------------*- C++ -*----------------------------------*\
| =========                 |                                                 |
| \\      /  F ield         | OpenFOAM: The Open Source CFD Toolbox           |
|  \\    /   O peration     | Version:  1.6                                   |
|   \\  /    A nd           | Web:      www.OpenFOAM.org                      |
|    \\/     M anipulation  |                                                 |
\*---------------------------------------------------------------------------*/

// Defines the discretization schemes used in the CFD model,
// for the terms continuity, momentum, and transport equations

FoamFile
{
    version     2.0;
    format      ascii;
    class       dictionary;
    location    "system";
    object      fvSchemes;
}
// * * * * * * * * * * * * * * * * * * * * * * * * * * * * * * * * * * * * * //

ddtSchemes
{
    //default         Euler;
    default         CrankNicolson 0.9;
}

gradSchemes
{
    default         Gauss linear;
}

divSchemes
{
    default         Gauss linear;
    div(phi,U)      Gauss limitedLinearV 1;
    div(phi,k)          bounded Gauss upwind;
    div(phi,epsilon)    bounded Gauss upwind;
}

laplacianSchemes
{
    //default         Gauss linear corrected;
    default         Gauss linear limited corrected 0.33;
}

interpolationSchemes
{
    default         linear;
}

snGradSchemes
{
    //default         corrected;
    default         limited corrected 0.33;
}

fluxRequired
{
    default         no;
    p               ;
}

// kOmegaSST
wallDist
{
    method meshWave;
}


// ************************************************************************* //
