/*---------------------------------------------------------------------------*\
| =========                 |                                                 |
| \\      /  F ield         | OpenFOAM: The Open Source CFD Toolbox           |
|  \\    /   O peration     | Version:  1.4                                   |
|   \\  /    A nd           | Web:      http://www.openfoam.org               |
|    \\/     M anipulation  |                                                 |
\*---------------------------------------------------------------------------*/

// commands used to communicate with and control the DEM solver

FoamFile
{
    version         2.0;
    format          ascii;

    root            "";
    case            "";
    instance        "";
    local           "";

    class           dictionary;
    object          liggghtsCommands;
}

// * * * * * * * * * * * * * * * * * * * * * * * * * * * * * * * * * * * * * //

liggghtsCommandModels
(
    runLiggghts
    writeLiggghts
);
// ************************************************************************* //

/*runLiggghtsProps
{
    preNo false;
}*/

writeLiggghtsProps
{
    writeLast off;
    //path "../DEM"; // optional setting
    writeName "post/restart/liggghts.restartCFDEM";
    overwrite on;
}
